6372
 OpenBabel06272216493D

  5  4  0  0  0  0  0  0  0  0999 V2000
   -1.5859   -0.0001    0.1002 Cl  0  0  0  0  0  0  0  0  0  0  0  0
    0.7377    1.0895    0.1354 F   0  0  0  0  0  0  0  0  0  0  0  0
    0.7378   -1.0895    0.1354 F   0  0  0  0  0  0  0  0  0  0  0  0
    0.1104    0.0000   -0.3710 C   0  0  0  0  0  0  0  0  0  0  0  0
    0.2036    0.0000   -1.4602 H   0  0  0  0  0  0  0  0  0  0  0  0
  1  4  1  0  0  0  0
  2  4  1  0  0  0  0
  3  4  1  0  0  0  0
  4  5  1  0  0  0  0
M  END
